version 2
4
9
.tran 1n 30m{return}{return}{return}.kicad adjustpaths{return}.save all{return}.probe alli
2
1
V(A1)
 
1
V(B1)
 
9
.tran 1n 30m{return}{return}{return}.kicad adjustpaths{return}.save all{return}.probe alli
2
1
V(C2)
 
1
V(S1)
 
9
.tran 1n 30m{return}{return}{return}.kicad adjustpaths{return}.save all{return}.probe alli
1
1
V(C2)
 
9
.tran 1n 30m{return}{return}{return}.kicad adjustpaths{return}.save all{return}.probe alli
2
1
V(C1)
 
1
V(S0)
 
